
#======================================================================
# CRYSTAL DATA
#----------------------------------------------------------------------
data_VESTA_phase_1

_chemical_name_common                  'MFI'
_cell_length_a                         20.021999
_cell_length_b                         19.899000
_cell_length_c                         13.383000
_cell_angle_alpha                      90.000000
_cell_angle_beta                       90.000000
_cell_angle_gamma                      90.000000
_cell_volume                           5332.025146
_space_group_name_H-M_alt              'P n m a'
_space_group_IT_number                 62

loop_
_space_group_symop_operation_xyz
   'x, y, z'
   '-x, -y, -z'
   '-x+1/2, -y, z+1/2'
   'x+1/2, y, -z+1/2'
   '-x, y+1/2, -z'
   'x, -y+1/2, z'
   'x+1/2, -y+1/2, -z+1/2'
   '-x+1/2, y+1/2, z+1/2'

loop_
   _atom_site_label
   _atom_site_occupancy
   _atom_site_fract_x
   _atom_site_fract_y
   _atom_site_fract_z
   _atom_site_adp_type
   _atom_site_U_iso_or_equiv
   _atom_site_type_symbol
   Si1        1.0     0.422380     0.056500     0.664020    Uiso  ? Si
   Si2        1.0     0.307160     0.027720     0.810700    Uiso  ? Si
   Si3        1.0     0.279110     0.061270     0.031200    Uiso  ? Si
   Si4        1.0     0.122150     0.062980     0.026700    Uiso  ? Si
   Si5        1.0     0.071280     0.027220     0.814490    Uiso  ? Si
   Si6        1.0     0.186410     0.058960     0.671820    Uiso  ? Si
   Si7        1.0     0.422650     0.827500     0.672820    Uiso  ? Si
   Si8        1.0     0.307780     0.869840     0.814520    Uiso  ? Si
   Si9        1.0     0.275540     0.827210     0.031090    Uiso  ? Si
   Si10       1.0     0.120580     0.826900     0.029790    Uiso  ? Si
   Si11       1.0     0.070440     0.869630     0.818000    Uiso  ? Si
   Si12       1.0     0.187060     0.826730     0.680670    Uiso  ? Si
   O13        1.0     0.372600     0.053400     0.755800    Uiso  ? O
   O14        1.0     0.308400     0.058700     0.921100    Uiso  ? O
   O15        1.0     0.200700     0.059200     0.028900    Uiso  ? O
   O16        1.0     0.096900     0.061100     0.914400    Uiso  ? O
   O17        1.0     0.114900     0.054100     0.723700    Uiso  ? O
   O18        1.0     0.243500     0.055300     0.754000    Uiso  ? O
   O19        1.0     0.374200     0.843900     0.762800    Uiso  ? O
   O20        1.0     0.308500     0.844800     0.927200    Uiso  ? O
   O21        1.0     0.198000     0.844600     0.028800    Uiso  ? O
   O22        1.0     0.091000     0.838600     0.922300    Uiso  ? O
   O23        1.0     0.116900     0.842200     0.730600    Uiso  ? O
   O24        1.0     0.244800     0.840600     0.757800    Uiso  ? O
   O25        1.0     0.304700     0.949000     0.813400    Uiso  ? O
   O26        1.0     0.076800     0.948100     0.823100    Uiso  ? O
   O27        1.0     0.416100     0.127600     0.610400    Uiso  ? O
   O28        1.0     0.408600     0.998300     0.586400    Uiso  ? O
   O29        1.0     0.402000     0.868600     0.576100    Uiso  ? O
   O30        1.0     0.188600     0.129800     0.616400    Uiso  ? O
   O31        1.0     0.194000     0.000700     0.591800    Uiso  ? O
   O32        1.0     0.195100     0.870900     0.581000    Uiso  ? O
   O33        1.0     0.996000     0.042500     0.792200    Uiso  ? O
   O34        1.0     0.996000     0.847200     0.792200    Uiso  ? O
   O35        1.0     0.419200     0.750000     0.646000    Uiso  ? O
   O36        1.0     0.188400     0.750000     0.646200    Uiso  ? O
   O37        1.0     0.288300     0.750000     0.057900    Uiso  ? O
   O38        1.0     0.108500     0.750000     0.061100    Uiso  ? O
